wca-integration/src/test/resources/network1.xiidm
<?xml version="1.0" encoding="UTF-8"?>
<iidm:network xmlns:iidm="http://www.itesla_project.eu/schema/iidm/1_0" id="network1" caseDate="2017-01-01T00:00:00.000Z" forecastDistance="0" sourceFormat="test">
    <iidm:substation id="substation1" country="FR" tso="TSO1" geographicalTags="region1">
        <iidm:voltageLevel id="voltageLevel1" nominalV="400.0" topologyKind="NODE_BREAKER">
            <iidm:nodeBreakerTopology nodeCount="10">
                <iidm:busbarSection id="voltageLevel1BusbarSection1" node="0"/>
                <iidm:busbarSection id="voltageLevel1BusbarSection2" node="1"/>
                <iidm:switch id="voltageLevel1Breaker1" kind="BREAKER" retained="true" open="false" node1="0" node2="1"/>
                <iidm:switch id="load1Disconnector1" kind="DISCONNECTOR" retained="false" open="false" node1="2" node2="3"/>
                <iidm:switch id="load1Breaker1" kind="DISCONNECTOR" retained="false" open="false" node1="3" node2="0"/>
                <iidm:switch id="generator1Disconnector1" kind="DISCONNECTOR" retained="false" open="false" node1="5" node2="6"/>
                <iidm:switch id="generator1Breaker1" kind="DISCONNECTOR" retained="false" open="false" node1="6" node2="1"/>
            </iidm:nodeBreakerTopology>
            <iidm:generator id="generator1" energySource="NUCLEAR" minP="200.0" maxP="900.0" voltageRegulatorOn="true" targetP="900.0" targetV="380.0" node="5">
                <iidm:reactiveCapabilityCurve>
                    <iidm:point p="200.0" minQ="300.0" maxQ="500.0"/>
                    <iidm:point p="900.0" minQ="300.0" maxQ="500.0"/>
                </iidm:reactiveCapabilityCurve>
            </iidm:generator>
            <iidm:load id="load1" loadType="UNDEFINED" p0="10.0" q0="3.0" node="2"/>
        </iidm:voltageLevel>
    </iidm:substation>
</iidm:network>
